Circuit: * T:\R\RFPS\zzMyData\StengPe\EnterpriseSTudent\2016_2017 Team\FastPulse\NchFETtest.asc

Direct Newton iteration for .op point succeeded.

Date: Fri Sep 30 17:48:31 2016
Total elapsed time: 1.357 seconds.

tnom = 27
temp = 27
method = modified trap
totiter = 1565
traniter = 1560
tranpoints = 453
accept = 383
rejected = 70
matrix size = 10
fillins = 0
solver = Normal
Matrix Compiler1: 426 bytes object code size  0.7/0.4/[0.1]
Matrix Compiler2: 706 bytes object code size  0.4/0.4/[0.2]


